Version 4
SHEET 1 1632 1460
WIRE 384 -336 -128 -336
WIRE 512 -336 384 -336
WIRE 560 -336 512 -336
WIRE 944 -336 624 -336
WIRE 384 -320 384 -336
WIRE -320 -240 -320 -272
WIRE -320 -240 -384 -240
WIRE -256 -240 -320 -240
WIRE 384 -224 384 -240
WIRE 384 -224 -80 -224
WIRE -384 -192 -384 -240
WIRE -256 -192 -256 -240
WIRE 512 -160 512 -336
WIRE 512 -160 80 -160
WIRE -1584 -80 -1600 -80
WIRE -384 -80 -384 -112
WIRE -384 -80 -640 -80
WIRE -32 -80 -384 -80
WIRE 256 -80 48 -80
WIRE 432 -64 288 -64
WIRE 640 -64 496 -64
WIRE 768 -64 640 -64
WIRE 944 -64 944 -336
WIRE 944 -64 848 -64
WIRE -640 16 -640 0
WIRE -256 16 -256 -112
WIRE -256 16 -640 16
WIRE -32 16 -256 16
WIRE 240 16 48 16
WIRE -1584 64 -1584 -80
WIRE -1056 64 -1056 16
WIRE 288 80 288 -64
WIRE 320 80 288 80
WIRE 640 80 640 -64
WIRE 640 80 608 80
WIRE 256 112 256 -80
WIRE 320 112 256 112
WIRE 944 112 944 -64
WIRE 944 112 608 112
WIRE 208 144 112 144
WIRE 240 144 240 16
WIRE 320 144 240 144
WIRE 800 144 608 144
WIRE 928 144 800 144
WIRE 1024 144 928 144
WIRE 1184 144 1104 144
WIRE 1248 144 1248 80
WIRE 1248 144 1184 144
WIRE 1296 144 1248 144
WIRE 112 176 112 144
WIRE 208 176 208 144
WIRE 320 176 208 176
WIRE 656 176 608 176
WIRE 800 176 800 144
WIRE 928 176 928 144
WIRE 1184 176 1184 144
WIRE 1296 176 1296 144
WIRE -1584 192 -1584 144
WIRE 320 208 208 208
WIRE 720 208 608 208
WIRE 320 240 224 240
WIRE 720 240 720 208
WIRE 720 240 608 240
WIRE -48 256 -352 256
WIRE 112 256 112 240
WIRE 112 256 32 256
WIRE 208 256 208 208
WIRE 208 256 112 256
WIRE -1056 272 -1056 144
WIRE 320 272 240 272
WIRE 720 272 720 240
WIRE 720 272 608 272
WIRE 800 272 800 256
WIRE 800 272 720 272
WIRE 928 272 928 240
WIRE 928 272 800 272
WIRE 1184 272 1184 240
WIRE 1184 272 928 272
WIRE 1248 272 1184 272
WIRE 1296 272 1296 240
WIRE 1296 272 1248 272
WIRE 80 288 80 -160
WIRE 224 288 224 240
WIRE 224 288 80 288
WIRE 320 304 256 304
WIRE 656 304 608 304
WIRE 1248 304 1248 272
WIRE -1584 320 -1584 272
WIRE -80 320 -80 -224
WIRE 256 320 256 304
WIRE 256 320 -80 320
WIRE 320 336 272 336
WIRE 320 368 288 368
WIRE -128 432 -128 -336
WIRE -1584 464 -1584 400
WIRE -1312 464 -1584 464
WIRE -1056 464 -1056 352
WIRE -1056 464 -1312 464
WIRE -1312 496 -1312 464
WIRE -128 528 -128 512
WIRE -16 528 -128 528
WIRE 96 528 64 528
WIRE 240 528 240 272
WIRE 240 528 96 528
WIRE 96 576 96 528
WIRE 96 672 96 640
WIRE 256 672 256 320
WIRE 256 672 96 672
WIRE 96 688 96 672
WIRE -1312 704 -1312 576
WIRE -352 704 -352 256
WIRE -352 704 -1312 704
WIRE -128 704 -128 528
WIRE 96 800 96 768
WIRE 272 800 272 336
WIRE 272 800 96 800
WIRE 96 816 96 800
WIRE -128 944 -128 768
WIRE 96 944 96 896
WIRE 96 944 -128 944
WIRE 288 944 288 368
WIRE 288 944 96 944
WIRE -1616 1040 -1616 1008
WIRE -128 1104 -128 944
WIRE 240 1104 -128 1104
WIRE 384 1104 240 1104
WIRE 608 1104 464 1104
WIRE 608 1136 608 1104
WIRE -1616 1152 -1616 1120
WIRE 608 1248 608 1200
FLAG -1056 16 RA-
FLAG -1584 -80 LA+
FLAG -320 -272 Vs
FLAG -352 256 VRLD
FLAG 240 1104 Vout
FLAG 1248 304 0
FLAG 1248 80 Vs
FLAG 656 176 Vs
FLAG 656 304 Vs
FLAG -1616 1152 0
FLAG -1616 1008 Vs
FLAG 608 1248 0
SYMBOL voltage -1056 256 R0
SYMATTR InstName VR1
SYMATTR Value PULSE(0 -2.2m 82m 20m 20m 1m 1.17)
SYMBOL voltage -1584 48 R0
SYMATTR InstName DCLA1
SYMATTR Value 300m
SYMBOL voltage -1584 304 R0
WINDOW 123 0 0 Left 0
WINDOW 39 0 0 Left 0
SYMATTR InstName VQ1
SYMATTR Value PULSE(0 -0.12m 60m 10m 10m 1m 1.17)
SYMBOL voltage -1584 176 R0
WINDOW 123 0 0 Left 0
WINDOW 39 0 0 Left 0
SYMATTR InstName VS1
SYMATTR Value PULSE(0 -0.6m 124m 15m 15m 1m 1.17)
SYMBOL voltage -1056 48 R0
WINDOW 123 0 0 Left 0
WINDOW 39 0 0 Left 0
SYMATTR InstName DCRA1
SYMATTR Value -300m
SYMBOL voltage -640 -96 R0
WINDOW 123 24 44 Left 2
WINDOW 39 0 0 Left 0
SYMATTR Value2 AC 1 0
SYMATTR InstName V1
SYMATTR Value ""
SYMBOL voltage -1312 480 R0
WINDOW 123 0 0 Left 0
WINDOW 39 0 0 Left 0
SYMATTR InstName VlineNoise
SYMATTR Value SINE(0 1.5 60)
SYMBOL AutoGenerated\\AD8232 464 224 R0
SYMATTR InstName U1
SYMBOL res -400 -208 R0
SYMATTR InstName R1
SYMATTR Value 10Meg
SYMBOL res -272 -208 R0
SYMATTR InstName R2
SYMATTR Value 10Meg
SYMBOL res 64 -96 R90
WINDOW 0 0 56 VBottom 2
WINDOW 3 32 56 VTop 2
SYMATTR InstName R3
SYMATTR Value 360k
SYMBOL res 64 0 R90
WINDOW 0 0 56 VBottom 2
WINDOW 3 32 56 VTop 2
SYMATTR InstName R4
SYMATTR Value 360k
SYMBOL cap 96 176 R0
SYMATTR InstName C1
SYMATTR Value 1n
SYMBOL res 48 240 R90
WINDOW 0 0 56 VBottom 2
WINDOW 3 32 56 VTop 2
SYMATTR InstName R5
SYMATTR Value 499k
SYMBOL res -144 416 R0
SYMATTR InstName R6
SYMATTR Value 1Meg
SYMBOL res 80 512 R90
WINDOW 0 0 56 VBottom 2
WINDOW 3 32 56 VTop 2
SYMATTR InstName R7
SYMATTR Value 1Meg
SYMBOL cap 80 576 R0
SYMATTR InstName C2
SYMATTR Value 10n
SYMBOL res 80 672 R0
SYMATTR InstName R8
SYMATTR Value 100k
SYMBOL res 80 800 R0
SYMATTR InstName R9
SYMATTR Value 1Meg
SYMBOL cap -144 704 R0
SYMATTR InstName C3
SYMATTR Value 1.5n
SYMBOL cap 496 -80 R90
WINDOW 0 0 32 VBottom 2
WINDOW 3 32 32 VTop 2
SYMATTR InstName C4
SYMATTR Value 3.3µ
SYMBOL res 864 -80 R90
WINDOW 0 0 56 VBottom 2
WINDOW 3 32 56 VTop 2
SYMATTR InstName R10
SYMATTR Value 10Meg
SYMBOL res 1120 128 R90
WINDOW 0 0 56 VBottom 2
WINDOW 3 32 56 VTop 2
SYMATTR InstName R13
SYMATTR Value 10Meg
SYMBOL cap 912 176 R0
SYMATTR InstName C6
SYMATTR Value 1µ
SYMBOL res 784 160 R0
SYMATTR InstName R14
SYMATTR Value 10Meg
SYMBOL cap 1168 176 R0
SYMATTR InstName C7
SYMATTR Value 0.1µ
SYMBOL cap 1280 176 R0
SYMATTR InstName C8
SYMATTR Value 10µ
SYMBOL voltage -1616 1024 R0
SYMATTR InstName Vs
SYMATTR Value 3.3
SYMBOL cap 624 -352 R90
WINDOW 0 0 32 VBottom 2
WINDOW 3 32 32 VTop 2
SYMATTR InstName C9
SYMATTR Value 3.3µ
SYMBOL res 368 -336 R0
SYMATTR InstName R15
SYMATTR Value 100k
SYMBOL res 480 1088 R90
WINDOW 0 0 56 VBottom 2
WINDOW 3 32 56 VTop 2
SYMATTR InstName R17
SYMATTR Value 20k
SYMBOL cap 592 1136 R0
SYMATTR InstName C5
SYMATTR Value 33n
TEXT -1656 -232 Left 2 ;Both left arm and right arm signals contain noise, common-mode voltage (electrode to ground),\nand electrode offset (skin contact). For simulation purposes only, the left arm contains the S \nand Q waves of the QRS complex, while the right arm contains the R wave. The difference of \nthe left arm and right arm results in a complete QRS complex at heart rate of 70 bpm.
TEXT -1656 -280 Left 2 ;ECG Signal Gen
TEXT -1528 96 Left 1 ;+300 mV electrode offset
TEXT -1008 96 Left 1 ;-300 mV electrode offset
TEXT -1424 1088 Left 2 !.include AD8232.cir
TEXT -1416 1040 Left 2 ;.tran 5
TEXT -1416 1136 Left 2 !.ac dec 1000 0.1 2.5k
TEXT 128 1120 Left 2 ;-> to prefilter/ADC
LINE Normal -464 -256 -1664 -256 2
LINE Normal -1664 640 -464 640 2
LINE Normal -1664 608 -1664 -256 2
LINE Normal -464 608 -464 -256 2
LINE Normal -464 640 -464 592 2
LINE Normal -1664 640 -464 640 2
LINE Normal -1664 608 -1664 640 2
