Version 4
SHEET 1 880 680
WIRE 256 -320 -304 -320
WIRE -304 -272 -304 -320
WIRE -304 -144 -304 -192
WIRE -304 -32 -304 -64
WIRE 256 -32 256 -320
WIRE 256 80 256 48
WIRE -304 96 -304 48
FLAG 256 80 0
FLAG -304 96 0
SYMBOL voltage -304 -48 R0
WINDOW 123 0 0 Left 0
WINDOW 39 0 0 Left 0
SYMATTR InstName Q
SYMATTR Value PULSE(0 -0.06m 60m 10m 10m 1m 1.17)
SYMBOL res 240 -48 R0
SYMATTR InstName R1
SYMATTR Value 1k
SYMBOL voltage -304 -160 R0
SYMATTR InstName R
SYMATTR Value PULSE(0 1m 82m 20m 20m 1m 1.17)
SYMBOL voltage -304 -288 R0
SYMATTR InstName S
SYMATTR Value PULSE(0 -0.3m 124m 15m 15m 1m 1.17)
TEXT -240 192 Left 2 !.tran 5
